[TITLE]
Bafoussam Water Distribution Network
Maayan Leak Detection Simulation
Simulated network representing Bafoussam (Mifi Department, West Region) city quarters
Open this file directly in EPANET 2.2 to inspect or modify the network.
Any change you save here is picked up live by the running Maayan backend
(no restart required) on its next simulation tick.

[JUNCTIONS]
;ID              	Elev        	Demand      	Pattern         
 J1              	1550        	2.5         	DemandPattern   	;Quarter Tamdja
 J2              	1548        	3.0         	DemandPattern   	;Quarter Kamkop
 J3              	1545        	2.8         	DemandPattern   	;Quarter Djeleng
 J4              	1543        	3.5         	DemandPattern   	;Quarter Tougang
 J5              	1542        	2.2         	DemandPattern   	;Quarter Famla
 J6              	1540        	3.1         	DemandPattern   	;Quarter Banengo
 J7              	1538        	2.9         	DemandPattern   	;Quarter Ndiengdam
 J8              	1536        	2.4         	DemandPattern   	;Quarter Kouogouo
 J9              	1555        	1.8         	DemandPattern   	;Quarter Nylon
 J10             	1552        	2.1         	DemandPattern   	;Zone Industrielle
 J11             	1547        	2.7         	DemandPattern   	;Quarter Kaptchou
 J12             	1544        	1.9         	DemandPattern   	;Quarter Kouekong

[RESERVOIRS]
;ID              	Head        	Pattern         
 R1              	1580        	                	;Main Reservoir Mifi
 R2              	1575        	                	;Secondary Reservoir Kouoptamo

[TANKS]
;ID              	Elevation   	InitLevel   	MinLevel    	MaxLevel    	Diameter    	MinVol      	VolCurve        
 T1              	1560        	10          	2           	15          	20          	0           	        	;Elevated Tank Tamdja

[PIPES]
;ID              	Node1           	Node2           	Length      	Diameter    	Roughness   	MinorLoss   	Status  
 P1              	R1              	J1              	800         	300         	100         	0           	Open    	;Main feed Mifi-Tamdja
 P2              	J1              	J2              	600         	250         	100         	0           	Open    	;Tamdja-Kamkop
 P3              	J2              	J3              	700         	200         	100         	0           	Open    	;Kamkop-Djeleng
 P4              	J3              	J4              	900         	200         	100         	0           	Open    	;Djeleng-Tougang
 P5              	J4              	J5              	800         	150         	100         	0           	Open    	;Tougang-Famla
 P6              	J5              	J6              	600         	150         	100         	0           	Open    	;Famla-Banengo
 P7              	J6              	J7              	500         	150         	100         	0           	Open    	;Banengo-Ndiengdam
 P8              	J7              	J8              	700         	125         	100         	0           	Open    	;Ndiengdam-Kouogouo
 P9              	J1              	J9              	550         	200         	100         	0           	Open    	;Tamdja-Nylon
 P10             	J9              	J10             	650         	175         	100         	0           	Open    	;Nylon-ZoneIndustrielle
 P11             	J10             	J11             	600         	150         	100         	0           	Open    	;ZoneIndustrielle-Kaptchou
 P12             	J11             	J12             	700         	125         	100         	0           	Open    	;Kaptchou-Kouekong
 P13             	J2              	J10             	800         	150         	100         	0           	Open    	;Loop Kamkop-ZoneIndustrielle
 P14             	J3              	J11             	750         	150         	100         	0           	Open    	;Loop Djeleng-Kaptchou
 P15             	R2              	J8              	900         	200         	100         	0           	Open    	;Secondary feed Kouoptamo
 P16             	J8              	J12             	600         	125         	100         	0           	Open    	;Kouogouo-Kouekong
 P17             	T1              	J1              	200         	300         	100         	0           	Open    	;Tank-Tamdja
 P18             	J5              	J11             	650         	150         	100         	0           	Open    	;Famla-Kaptchou loop

[PUMPS]
;ID              	Node1           	Node2           	Parameters      
 PU1             	R1              	J1              	HEAD PumpCurve1 	;Main pump station Mifi

[VALVES]
;ID              	Node1           	Node2           	Diameter    	Type	Setting     	MinorLoss   

[TAGS]

[DEMANDS]

[STATUS]

[PATTERNS]
;ID              	Multipliers
 DemandPattern   	0.8	0.7	0.6	0.6	0.7	0.9
 DemandPattern   	1.1	1.3	1.4	1.2	1.1	1.0
 DemandPattern   	1.0	1.1	1.2	1.3	1.1	1.0
 DemandPattern   	0.9	0.8	0.7	0.7	0.8	0.8

[CURVES]
;ID              	X-Value     	Y-Value     
 PumpCurve1      	0           	60          
 PumpCurve1      	2           	55          
 PumpCurve1      	4           	45          
 PumpCurve1      	6           	30          
 PumpCurve1      	8           	10          

[CONTROLS]

[RULES]

[ENERGY]
 Global Efficiency	75
 Global Price	0
 Demand Charge	0

[EMITTERS]

[QUALITY]

[SOURCES]

[REACTIONS]
 Order Bulk	1
 Order Tank	1
 Order Wall	1
 Global Bulk	0
 Global Wall	0
 Limiting Potential	0
 Roughness Correlation	0

[MIXING]

[TIMES]
 Duration          	24:00	
 Hydraulic Timestep	0:30	
 Quality Timestep  	0:05	
 Pattern Timestep  	1:00	
 Pattern Start     	0:00	
 Report Timestep   	1:00	
 Report Start      	0:00	
 Start ClockTime   	12 am
 Statistic         	NONE  

[REPORT]
 Status	No
 Summary	No
 Page	0

[OPTIONS]
 Units             	LPS         
 Headloss         	H-W         
 Specific Gravity  	1
 Viscosity         	1
 Trials            	40
 Accuracy          	0.001
 CHECKFREQ         	2
 MAXCHECK          	10
 DAMPLIMIT         	0
 Unbalanced        	Continue    10
 Pattern           	DemandPattern
 Demand Multiplier 	1.0
 Emitter Exponent  	0.5
 Quality           	None        mg/L
 Diffusivity       	1
 Tolerance         	0.01

[COORDINATES]
;Node            	X-Coord         	Y-Coord
 J1              	400             	500     
 J2              	600             	500     
 J3              	800             	450     
 J4              	1000            	400     
 J5              	900             	600     
 J6              	700             	650     
 J7              	500             	650     
 J8              	300             	600     
 J9              	400             	350     
 J10             	600             	300     
 J11             	800             	350     
 J12             	500             	200     
 R1              	200             	500     
 R2              	200             	650     
 T1              	300             	350     

[VERTICES]

[LABELS]
;X-Coord        	Y-Coord         	Label & Anchor Node

[BACKDROP]

[END]
