[TITLE]
Douala Water Distribution Network
Maayan Leak Detection Simulation
Simulated network representing Douala city zones
Open this file directly in EPANET 2.2 to inspect or modify the network.
Any change you save here is picked up live by the running Maayan backend
(no restart required) on its next simulation tick.

[JUNCTIONS]
;ID              	Elev        	Demand      	Pattern         
 J1              	50          	2.5         	DemandPattern   	;Zone Akwa
 J2              	48          	3.0         	DemandPattern   	;Zone Bali
 J3              	45          	2.8         	DemandPattern   	;Zone Deido
 J4              	43          	3.5         	DemandPattern   	;Zone Bonaberi
 J5              	42          	2.2         	DemandPattern   	;Zone New Bell
 J6              	40          	3.1         	DemandPattern   	;Zone Ndokotti
 J7              	38          	2.9         	DemandPattern   	;Zone Makepe
 J8              	36          	2.4         	DemandPattern   	;Zone Logbessou
 J9              	55          	1.8         	DemandPattern   	;Zone Bonamoussadi
 J10             	52          	2.1         	DemandPattern   	;Zone Cite des Palmiers
 J11             	47          	2.7         	DemandPattern   	;Zone Village
 J12             	44          	1.9         	DemandPattern   	;Zone Pk14

[RESERVOIRS]
;ID              	Head        	Pattern         
 R1              	80          	                	;Main Reservoir Bassa
 R2              	75          	                	;Secondary Reservoir Japoma

[TANKS]
;ID              	Elevation   	InitLevel   	MinLevel    	MaxLevel    	Diameter    	MinVol      	VolCurve        
 T1              	60          	10          	2           	15          	20          	0           	        	;Elevated Tank Akwa

[PIPES]
;ID              	Node1           	Node2           	Length      	Diameter    	Roughness   	MinorLoss   	Status  
 P1              	R1              	J1              	800         	300         	100         	0           	Open    	;Main feed Bassa-Akwa
 P2              	J1              	J2              	600         	250         	100         	0           	Open    	;Akwa-Bali
 P3              	J2              	J3              	700         	200         	100         	0           	Open    	;Bali-Deido
 P4              	J3              	J4              	900         	200         	100         	0           	Open    	;Deido-Bonaberi
 P5              	J4              	J5              	800         	150         	100         	0           	Open    	;Bonaberi-New Bell
 P6              	J5              	J6              	600         	150         	100         	0           	Open    	;New Bell-Ndokotti
 P7              	J6              	J7              	500         	150         	100         	0           	Open    	;Ndokotti-Makepe
 P8              	J7              	J8              	700         	125         	100         	0           	Open    	;Makepe-Logbessou
 P9              	J1              	J9              	550         	200         	100         	0           	Open    	;Akwa-Bonamoussadi
 P10             	J9              	J10             	650         	175         	100         	0           	Open    	;Bonamoussadi-Palmiers
 P11             	J10             	J11             	600         	150         	100         	0           	Open    	;Palmiers-Village
 P12             	J11             	J12             	700         	125         	100         	0           	Open    	;Village-Pk14
 P13             	J2              	J10             	800         	150         	100         	0           	Open    	;Loop Bali-Palmiers
 P14             	J3              	J11             	750         	150         	100         	0           	Open    	;Loop Deido-Village
 P15             	R2              	J8              	900         	200         	100         	0           	Open    	;Secondary feed Japoma
 P16             	J8              	J12             	600         	125         	100         	0           	Open    	;Logbessou-Pk14
 P17             	T1              	J1              	200         	300         	100         	0           	Open    	;Tank-Akwa
 P18             	J5              	J11             	650         	150         	100         	0           	Open    	;NewBell-Village loop

[PUMPS]
;ID              	Node1           	Node2           	Parameters      
 PU1             	R1              	J1              	HEAD PumpCurve1 	;Main pump station Bassa

[VALVES]
;ID              	Node1           	Node2           	Diameter    	Type	Setting     	MinorLoss   

[TAGS]

[DEMANDS]

[STATUS]

[PATTERNS]
;ID              	Multipliers
 DemandPattern   	0.8	0.7	0.6	0.6	0.7	0.9
 DemandPattern   	1.1	1.3	1.4	1.2	1.1	1.0
 DemandPattern   	1.0	1.1	1.2	1.3	1.1	1.0
 DemandPattern   	0.9	0.8	0.7	0.7	0.8	0.8

[CURVES]
;ID              	X-Value     	Y-Value     
 PumpCurve1      	0           	60          
 PumpCurve1      	2           	55          
 PumpCurve1      	4           	45          
 PumpCurve1      	6           	30          
 PumpCurve1      	8           	10          

[CONTROLS]

[RULES]

[ENERGY]
 Global Efficiency	75
 Global Price	0
 Demand Charge	0

[EMITTERS]

[QUALITY]

[SOURCES]

[REACTIONS]
 Order Bulk	1
 Order Tank	1
 Order Wall	1
 Global Bulk	0
 Global Wall	0
 Limiting Potential	0
 Roughness Correlation	0

[MIXING]

[TIMES]
 Duration          	24:00	
 Hydraulic Timestep	0:30	
 Quality Timestep  	0:05	
 Pattern Timestep  	1:00	
 Pattern Start     	0:00	
 Report Timestep   	1:00	
 Report Start      	0:00	
 Start ClockTime   	12 am
 Statistic         	NONE  

[REPORT]
 Status	No
 Summary	No
 Page	0

[OPTIONS]
 Units             	LPS         
 Headloss         	H-W         
 Specific Gravity  	1
 Viscosity         	1
 Trials            	40
 Accuracy          	0.001
 CHECKFREQ         	2
 MAXCHECK          	10
 DAMPLIMIT         	0
 Unbalanced        	Continue    10
 Pattern           	DemandPattern
 Demand Multiplier 	1.0
 Emitter Exponent  	0.5
 Quality           	None        mg/L
 Diffusivity       	1
 Tolerance         	0.01

[COORDINATES]
;Node            	X-Coord         	Y-Coord
 J1              	400             	500     
 J2              	600             	500     
 J3              	800             	450     
 J4              	1000            	400     
 J5              	900             	600     
 J6              	700             	650     
 J7              	500             	650     
 J8              	300             	600     
 J9              	400             	350     
 J10             	600             	300     
 J11             	800             	350     
 J12             	500             	200     
 R1              	200             	500     
 R2              	200             	650     
 T1              	300             	350     

[VERTICES]

[LABELS]
;X-Coord        	Y-Coord         	Label & Anchor Node

[BACKDROP]

[END]
